123
commit suiside
456

new line.
add line