test
5617
commit suiside
456

new line.
add line
